*SPEF "1481-1998"
*DESIGN "multi_adder"
*DATE "Sun Apr  5 04:14:40 2026"
*VENDOR "Synopsys, Inc."
*PROGRAM "icc2 /home/synopsys_install/icc2/W-2024.09/linux64/nwtn/bin/icc2_exec"
*VERSION "W-2024.09 Aug 25, 2024"
*DESIGN_FLOW "ICC2 SPEF DR"
*DIVIDER /
*DELIMITER :
*BUS_DELIMITER [ ]
*T_UNIT 1 NS
*C_UNIT 1 FF
*R_UNIT 1 OHM
*L_UNIT 1 HENRY

// XY_UNIT 1 UM
// PARASITIC_TECH p2 at 125.000 degree

*NAME_MAP
*1 clk
*2 reset
*3 n[3]
*4 n[2]
*5 n[1]
*6 n[0]
*7 sum[7]
*8 sum[6]
*9 sum[5]
*10 sum[4]
*11 sum[3]
*12 sum[2]
*13 sum[1]
*14 sum[0]
*15 VDD
*16 VSS
*17 i_reg[0]
*18 i_reg[1]
*19 i_reg[3]
*20 sum_reg[7]
*21 sum_reg[6]
*22 sum_reg[5]
*23 sum_reg[4]
*24 sum_reg[3]
*25 sum_reg[2]
*26 sum_reg[1]
*27 sum_reg[0]
*28 i_reg[2]
*29 U50
*30 U51
*31 U52
*32 HFSINV_71_4
*33 U54
*34 ZBUF_17_inst_293
*35 HFSINV_4_0
*36 HFSINV_568_5
*37 ctosc_drc_inst_1189
*38 ctosc_drc_inst_1190
*39 ctosc_drc_inst_1191
*40 ctosc_drc_inst_1192
*41 ctosc_drc_inst_1193
*42 U60
*43 U61
*44 U62
*45 U63
*46 U64
*47 U65
*48 ctmTdsLR_1_290
*49 ctmTdsLR_2_291
*50 HFSBUF_32_1
*51 U68
*52 U70
*53 U71
*54 U72
*55 U73
*56 U74
*57 U75
*58 U76
*59 U77
*60 ctmTdsLR_1_289
*61 ctmTdsLR_3_292
*62 U80
*63 U81
*64 U82
*65 U83
*66 U84
*67 U85
*68 U86
*69 U87
*70 U88
*71 U89
*72 U90
*73 U91
*74 U92
*75 U93
*76 U94
*77 HFSBUF_32_2
*78 ctmTdsLR_1_287
*79 ctmTdsLR_2_288
*80 copt_h_inst_1194
*81 copt_h_inst_1195
*82 copt_h_inst_1196
*83 copt_h_inst_1197
*84 copt_h_inst_1198
*85 copt_gre_h_inst_1240
*86 copt_h_inst_1200
*87 copt_h_inst_1201
*88 copt_h_inst_1202
*89 copt_h_inst_1203
*90 copt_h_inst_1204
*91 copt_h_inst_1205
*92 ropt_mt_inst_1241
*93 ropt_h_inst_1242
*94 ropt_h_inst_1243
*95 ctosc_drc_inst_1076
*96 copt_h_inst_1210
*97 copt_h_inst_1211
*98 copt_h_inst_1218
*99 copt_h_inst_1227
*100 copt_h_inst_1228
*101 copt_h_inst_1229
*102 copt_h_inst_1230
*103 copt_h_inst_1231
*104 copt_h_inst_1232
*105 copt_h_inst_1233
*106 copt_h_inst_1234
*107 copt_h_inst_1235
*108 copt_h_inst_1236
*109 copt_h_inst_1237
*110 aps_rename_1_
*111 aps_rename_2_
*112 HFSNET_5
*113 n36
*114 n37
*115 n38
*116 n39
*117 n40
*118 n41
*119 n42
*120 n43
*121 n44
*122 n45
*123 n46
*124 n47
*125 ZBUF_17_0
*126 HFSNET_0
*127 n50
*128 HFSNET_1
*129 ctosc_drc_0
*130 n53
*131 ctosc_drc_1
*132 n55
*133 n56
*134 n57
*135 n58
*136 ctosc_drc_2
*137 HFSNET_4
*138 n61
*139 n62
*140 n63
*141 n64
*142 n65
*143 n66
*144 n67
*145 n68
*146 n69
*147 n70
*148 n71
*149 n72
*150 n73
*151 n74
*152 n75
*153 n76
*154 n77
*155 n78
*156 n79
*157 n80
*158 n82
*159 n83
*160 n84
*161 n85
*162 n86
*163 i[3]
*164 i[2]
*165 i[1]
*166 i[0]
*167 HFSNET_2
*168 tmp_net0
*169 tmp_net1
*170 tmp_net2
*171 ctosc_drc_3
*172 ctosc_drc_4
*173 copt_net_129
*174 copt_net_130
*175 copt_net_131
*176 copt_net_133
*177 copt_gre_net_175
*178 copt_net_136
*179 copt_net_137
*180 copt_net_138
*181 copt_net_139
*182 copt_net_140
*183 ropt_net_176
*184 ropt_net_177
*185 ropt_net_178
*186 ctosc_drc_20
*187 copt_net_145
*188 copt_net_146
*189 copt_net_153
*190 copt_net_162
*191 copt_net_163
*192 copt_net_164
*193 copt_net_165
*194 copt_net_166
*195 copt_net_167
*196 copt_net_168
*197 copt_net_169
*198 copt_net_170
*199 copt_net_171
*200 copt_net_172

*PORTS

*1 I *C 0.143 22.632
*2 I *C 0.143 22.024
*3 I *C 18.376 41.625
*4 I *C 3.328 41.625
*5 I *C 10.320 41.625
*6 I *C 21.264 41.625
*7 O *C 33.569 26.280
*8 O *C 33.569 25.672
*9 O *C 33.569 25.064
*10 O *C 33.569 24.456
*11 O *C 33.569 23.848
*12 O *C 33.569 23.240
*13 O *C 33.569 22.632
*14 O *C 33.569 22.024
*15 I *C 16.856 20.884
*16 I *C 16.856 20.884

*D_NET *1 1.441834 //LENGTH 21.050 LUMPCC 0 DR

*CONN
*P *1 I *L 0 *C 0.258 22.632
*I *41:A I *L 0.424274 *C 11.080 12.600
*N *1:2 *C 11.079 12.600
*N *1:3 *C 10.928 12.600
*N *1:4 *C 10.928 22.619
*N *1:5 *C 10.915 22.632

*CAP
0 *1 0.3267858
1 *41:A 0.001
2 *1:2 0.003647343
3 *1:3 0.3968715
4 *1:4 0.3885225
5 *1:5 0.3250068

*RES
0 *1 *1:5 19.02947
1 *1:2 *41:A 1
2 *1:4 *1:3 17.89018
3 *1:5 *1:4 0.5
4 *1:3 *1:2 0.2696429

*END

*D_NET *2 0.6770126 //LENGTH 11.290 LUMPCC 0 DR

*CONN
*P *2 I *L 0 *C 0.258 22.024
*I *92:A I *L 0.578227 *C 6.642 26.029
*N *2:2 *C 6.545 26.001
*N *2:3 *C 6.495 25.996
*N *2:4 *C 6.368 25.921
*N *2:5 *C 6.368 25.976
*N *2:6 *C 6.368 25.963
*N *2:7 *C 6.368 25.686
*N *2:8 *C 6.368 25.672
*N *2:9 *C 6.508 25.672
*N *2:10 *C 6.520 25.659
*N *2:11 *C 6.520 22.038
*N *2:12 *C 6.506 22.024

*CAP
0 *2 0.1870055
1 *92:A 0.01103563
2 *2:2 0.01128768
3 *2:3 0.01370109
4 *2:4 0.00674055
5 *2:5 0.01859546
6 *2:6 0.01406538
7 *2:7 0.01388047
8 *2:8 0.007733545
9 *2:9 0.007733646
10 *2:10 0.1000035
11 *2:11 0.1000035
12 *2:12 0.1852266

*RES
0 *2 *2:12 11.15804
1 *2:5 *2:4 0.11
2 *2:5 *2:3 0.254
3 *2:6 *2:5 1
4 *2:7 *2:6 0.4946429
5 *2:8 *2:7 0.5
6 *2:9 *2:8 0.2325
7 *2:10 *2:9 0.5
8 *2:12 *2:11 0.5
9 *2:11 *2:10 6.466072
10 *2:3 *2:2 0.001
11 *2:2 *92:A 0.194

*END

*D_NET *3 0.3807356 //LENGTH 6.213 LUMPCC 0 DR

*CONN
*P *3 I *L 0 *C 18.376 41.510
*I *77:A I *L 0.578227 *C 18.680 36.008
*N *3:2 *C 18.680 35.826
*N *3:3 *C 18.680 35.995
*N *3:4 *C 18.666 36.008
*N *3:5 *C 18.390 36.008
*N *3:6 *C 18.376 36.022

*CAP
0 *3 0.170694
1 *77:A 0.001
2 *3:2 0.01134328
3 *3:3 0.00664168
4 *3:4 0.01107084
5 *3:5 0.01107084
6 *3:6 0.168915

*RES
0 *3 *3:6 9.800894
1 *3:3 *77:A 1
2 *3:3 *3:2 0.2825
3 *3:4 *3:3 0.5
4 *3:6 *3:5 0.5
5 *3:5 *3:4 0.4946429

*END

*D_NET *4 0.4776278 //LENGTH 7.558 LUMPCC 0 DR

*CONN
*P *4 I *L 0 *C 3.328 41.510
*I *34:A I *L 0.434891 *C 5.274 36.008
*N *4:2 *C 3.343 36.008
*N *4:3 *C 3.328 36.022

*CAP
0 *4 0.164977
1 *34:A 0.07543107
2 *4:2 0.07383694
3 *4:3 0.1633828

*RES
0 *4 *4:3 9.800894
1 *4:2 *34:A 3.862
2 *4:3 *4:2 1

*END

*D_NET *5 0.3943069 //LENGTH 6.689 LUMPCC 0 DR

*CONN
*P *5 I *L 0 *C 10.320 41.510
*I *50:A I *L 0.578227 *C 9.408 36.008
*N *5:2 *C 9.408 36.022
*N *5:3 *C 9.408 39.035
*N *5:4 *C 9.421 39.048
*N *5:5 *C 10.306 39.048
*N *5:6 *C 10.320 39.062

*CAP
0 *5 0.07600125
1 *50:A 0.001
2 *5:2 0.09587742
3 *5:3 0.09702095
4 *5:4 0.02509254
5 *5:5 0.02509254
6 *5:6 0.07422221

*RES
0 *5 *5:6 4.372322
1 *5:2 *50:A 1
2 *5:3 *5:2 5.380358
3 *5:4 *5:3 0.5
4 *5:6 *5:5 0.5
5 *5:5 *5:4 1.580357

*END

*D_NET *6 0.4175885 //LENGTH 6.973 LUMPCC 0 DR

*CONN
*P *6 I *L 0 *C 21.264 41.510
*I *35:A I *L 0.525653 *C 20.200 36.008
*N *6:2 *C 20.200 35.826
*N *6:3 *C 20.200 35.995
*N *6:4 *C 20.213 36.008
*N *6:5 *C 21.251 36.008
*N *6:6 *C 21.264 36.022

*CAP
0 *6 0.1690696
1 *35:A 0.001
2 *6:2 0.01038021
3 *6:3 0.005678613
4 *6:4 0.03208473
5 *6:5 0.03208473
6 *6:6 0.1672906

*RES
0 *6 *6:6 9.800894
1 *6:3 *35:A 1
2 *6:3 *6:2 0.2825
3 *6:4 *6:3 0.5
4 *6:6 *6:5 0.5
5 *6:5 *6:4 1.851786

*END

*D_NET *7 0.7108704 //LENGTH 10.714 LUMPCC 0 DR

*CONN
*I *20:Q O *L 0 *C 25.672 29.016
*P *7 O *L 1 *C 33.454 26.280
*N *7:2 *C 25.838 26.280
*N *7:3 *C 25.824 26.294
*N *7:4 *C 25.824 29.016
*N *7:5 *C 25.673 29.016

*CAP
0 *20:Q 0.001
1 *7 0.2508631
2 *7:2 0.2490841
3 *7:3 0.09879672
4 *7:4 0.1073124
5 *7:5 0.003814137

*RES
0 *20:Q *7:5 1
1 *7:5 *7:4 0.2696429
2 *7:3 *7:2 0.5
3 *7:2 *7 13.60089
4 *7:4 *7:3 4.861607

*END

*D_NET *110 0.2091788 //LENGTH 2.894 LUMPCC 0 DR

*CONN
*I *21:Q O *L 0 *C 27.648 31.144
*I *83:A I *L 0.424274 *C 28.560 32.664
*N *110:2 *C 27.648 30.962
*N *110:3 *C 28.560 32.651
*N *110:4 *C 28.560 31.158
*N *110:5 *C 28.547 31.144
*N *110:6 *C 27.662 31.144
*N *110:7 *C 27.648 31.132

*CAP
0 *21:Q 0.001
1 *83:A 0.001
2 *110:2 0.01434492
3 *110:3 0.05383207
4 *110:4 0.0549756
5 *110:5 0.03719143
6 *110:6 0.03719143
7 *110:7 0.009643323

*RES
0 *21:Q *110:7 1
1 *110:3 *83:A 1
2 *110:4 *110:3 2.666071
3 *110:5 *110:4 0.5
4 *110:7 *110:6 0.5
5 *110:7 *110:2 0.2825
6 *110:6 *110:5 1.580357

*END

*D_NET *111 0.07529095 //LENGTH 0.835 LUMPCC 0 DR

*CONN
*I *22:Q O *L 0 *C 23.240 25.672
*I *86:A I *L 0.427737 *C 23.696 25.961
*N *111:2 *C 23.696 25.672
*N *111:3 *C 23.695 25.672
*N *111:4 *C 23.241 25.672

*CAP
0 *22:Q 0.001
1 *86:A 0.0186592
2 *111:2 0.02498018
3 *111:3 0.01599
4 *111:4 0.01466156

*RES
0 *22:Q *111:4 1
1 *111:2 *86:A 0.5780001
2 *111:3 *111:2 1
3 *111:4 *111:3 0.8107142

*END

*D_NET *10 1.142447 //LENGTH 16.417 LUMPCC 0 DR

*CONN
*I *23:Q O *L 0 *C 22.480 22.328
*I *87:A I *L 0.427737 *C 24.304 27.496
*P *10 O *L 1 *C 33.454 24.456
*N *10:3 *C 24.304 27.483
*N *10:4 *C 24.304 24.470
*N *10:5 *C 24.304 24.456
*N *10:6 *C 22.494 24.456
*N *10:7 *C 22.480 24.443
*N *10:8 *C 22.480 22.341

*CAP
0 *23:Q 0.001
1 *87:A 0.001
2 *10 0.2966368
3 *10:3 0.1053214
4 *10:4 0.1064649
5 *10:5 0.3542711
6 *10:6 0.05763423
7 *10:7 0.1106312
8 *10:8 0.1094876

*RES
0 *23:Q *10:8 1
1 *10:4 *10:3 5.380358
2 *10:5 *10:4 0.5
3 *10:5 *10 16.33929
4 *10:3 *87:A 1
5 *10:7 *10:6 0.5
6 *10:6 *10:5 3.233036
7 *10:8 *10:7 3.751786

*END

*D_NET *11 1.341987 //LENGTH 19.465 LUMPCC 0 DR

*CONN
*I *24:Q O *L 0 *C 22.024 31.144
*I *84:A I *L 0.427737 *C 28.256 27.496
*P *11 O *L 1 *C 33.454 23.848
*N *11:3 *C 29.942 23.848
*N *11:4 *C 29.928 23.861
*N *11:5 *C 29.928 27.483
*N *11:6 *C 29.915 27.496
*N *11:7 *C 28.256 27.314
*N *11:8 *C 28.256 27.484
*N *11:9 *C 28.256 27.496
*N *11:10 *C 22.341 27.496
*N *11:11 *C 22.328 27.510
*N *11:12 *C 22.328 30.688
*N *11:13 *C 22.024 30.688
*N *11:14 *C 22.024 31.131

*CAP
0 *24:Q 0.001
1 *84:A 0.001
2 *11 0.1213799
3 *11:3 0.1196008
4 *11:4 0.1205972
5 *11:5 0.1205972
6 *11:6 0.04842682
7 *11:7 0.01392911
8 *11:8 0.009227506
9 *11:9 0.2303464
10 *11:10 0.1801405
11 *11:11 0.1549508
12 *11:12 0.1692727
13 *11:13 0.03349181
14 *11:14 0.01802639

*RES
0 *24:Q *11:14 1
1 *11:5 *11:4 6.466072
2 *11:6 *11:5 0.5
3 *11:4 *11:3 0.5
4 *11:3 *11 6.272322
5 *11:8 *84:A 1
6 *11:8 *11:7 0.2825
7 *11:9 *11:8 0.5
8 *11:9 *11:6 2.961607
9 *11:11 *11:10 0.5
10 *11:10 *11:9 10.56161
11 *11:14 *11:13 0.7901785
12 *11:13 *11:12 0.5428572
13 *11:12 *11:11 5.675893

*END

*D_NET *12 1.821275 //LENGTH 25.087 LUMPCC 0 DR

*CONN
*I *25:Q O *L 0 *C 17.768 25.672
*P *12 O *L 1 *C 33.454 23.240
*I *91:A I *L 0.427737 *C 21.568 29.320
*N *12:3 *C 17.768 25.490
*N *12:4 *C 21.568 29.306
*N *12:5 *C 21.568 28.117
*N *12:6 *C 21.555 28.104
*N *12:7 *C 18.998 28.104
*N *12:8 *C 18.984 28.091
*N *12:9 *C 18.998 23.240
*N *12:10 *C 18.984 23.254
*N *12:11 *C 18.984 25.672
*N *12:12 *C 18.971 25.672
*N *12:13 *C 17.782 25.672
*N *12:14 *C 17.768 25.660

*CAP
0 *25:Q 0.001
1 *12 0.500057
2 *91:A 0.001
3 *12:3 0.01033814
4 *12:4 0.0526904
5 *12:5 0.05383393
6 *12:6 0.08636295
7 *12:7 0.08636295
8 *12:8 0.1051184
9 *12:9 0.498278
10 *12:10 0.108089
11 *12:11 0.2149865
12 *12:12 0.04876043
13 *12:13 0.04876043
14 *12:14 0.005636538

*RES
0 *25:Q *12:14 1
1 *12:8 *12:7 0.5
2 *12:7 *12:6 4.566072
3 *12:5 *12:4 2.123214
4 *12:6 *12:5 0.5
5 *12:4 *91:A 1
6 *12:10 *12:9 0.5
7 *12:9 *12 25.81518
8 *12:11 *12:10 4.31875
9 *12:11 *12:8 4.31875
10 *12:12 *12:11 0.5
11 *12:14 *12:13 0.5
12 *12:14 *12:3 0.2825
13 *12:13 *12:12 2.123214

*END

*D_NET *13 1.737378 //LENGTH 24.164 LUMPCC 0 DR

*CONN
*I *26:Q O *L 0 *C 18.224 22.328
*I *78:A I *L 0.604022 *C 18.844 20.808
*P *13 O *L 1 *C 33.454 22.632
*I *57:A4 I *L 0.582243 *C 12.600 22.784
*N *13:4 *C 12.600 22.784
*N *13:5 *C 12.600 22.924
*N *13:6 *C 12.614 22.936
*N *13:7 *C 18.224 22.936
*N *13:8 *C 18.972 20.808
*N *13:9 *C 18.984 20.822
*N *13:10 *C 18.984 22.619
*N *13:11 *C 18.984 22.632
*N *13:12 *C 18.224 22.632
*N *13:13 *C 18.224 22.619
*N *13:14 *C 18.224 22.341

*CAP
0 *26:Q 0.001
1 *78:A 0.01144875
2 *13 0.4734865
3 *57:A4 0.001
4 *13:4 0.008066341
5 *13:5 0.009209872
6 *13:6 0.2224255
7 *13:7 0.2351931
8 *13:8 0.009854623
9 *13:9 0.08805529
10 *13:10 0.08787038
11 *13:11 0.5059507
12 *13:12 0.04345277
13 *13:13 0.02075382
14 *13:14 0.01961029

*RES
0 *26:Q *13:14 1
1 *13:10 *13:9 3.208929
2 *13:11 *13:10 0.5
3 *13:11 *13 25.83929
4 *13:8 *78:A 0.2125
5 *13:9 *13:8 1
6 *13:13 *13:12 0.5
7 *13:12 *13:11 1.357143
8 *13:12 *13:7 0.5428572
9 *13:14 *13:13 0.4946429
10 *13:5 *13:4 0.2325
11 *13:6 *13:5 0.5
12 *13:4 *57:A4 1
13 *13:7 *13:6 10.01875

*END

*D_NET *14 2.711424 //LENGTH 39.504 LUMPCC 0 DR

*CONN
*I *27:Q O *L 0 *C 18.528 18.984
*I *69:A1 I *L 0.550305 *C 12.144 19.288
*I *44:A2 I *L 0.483357 *C 11.536 19.288
*I *58:A2 I *L 0.567721 *C 13.816 19.136
*P *14 O *L 1 *C 33.454 22.024
*N *14:5 *C 32.678 22.024
*N *14:6 *C 32.664 22.011
*N *14:7 *C 32.664 20.518
*N *14:8 *C 32.651 20.504
*N *14:9 *C 18.694 20.504
*N *14:10 *C 18.680 20.491
*N *14:11 *C 13.816 19.136
*N *14:12 *C 13.816 19.276
*N *14:13 *C 13.803 19.288
*N *14:14 *C 11.536 19.156
*N *14:15 *C 11.536 19.276
*N *14:16 *C 11.550 19.288
*N *14:17 *C 12.144 19.106
*N *14:18 *C 12.144 19.276
*N *14:19 *C 12.144 19.288
*N *14:20 *C 13.360 19.288
*N *14:21 *C 13.360 19.274
*N *14:22 *C 13.360 12.918
*N *14:23 *C 13.373 12.904
*N *14:24 *C 18.666 12.904
*N *14:25 *C 18.680 12.918
*N *14:26 *C 18.680 18.984
*N *14:27 *C 18.529 18.984

*CAP
0 *27:Q 0.001
1 *69:A1 0.001
2 *44:A2 0.001
3 *58:A2 0.001
4 *14 0.02745874
5 *14:5 0.0256798
6 *14:6 0.04015173
7 *14:7 0.04015173
8 *14:8 0.3830381
9 *14:9 0.383038
10 *14:10 0.06348598
11 *14:11 0.010467
12 *14:12 0.01161053
13 *14:13 0.0199661
14 *14:14 0.01109938
15 *14:15 0.005048096
16 *14:16 0.02239318
17 *14:17 0.01498745
18 *14:18 0.01028585
19 *14:19 0.07308987
20 *14:20 0.06918027
21 *14:21 0.2784791
22 *14:22 0.2784791
23 *14:23 0.1953247
24 *14:24 0.1953247
25 *14:25 0.2351782
26 *14:26 0.3093255
27 *14:27 0.00418066

*RES
0 *27:Q *14:27 1
1 *14:10 *14:9 0.5
2 *14:9 *14:8 24.92321
3 *14:8 *14:7 0.5
4 *14:7 *14:6 2.666072
5 *14:5 *14 1.386607
6 *14:6 *14:5 0.5
7 *14:27 *14:26 0.2696429
8 *14:12 *14:11 0.2325
9 *14:13 *14:12 0.5
10 *14:11 *58:A2 1
11 *14:25 *14:24 0.5
12 *14:24 *14:23 9.451786
13 *14:22 *14:21 11.35179
14 *14:23 *14:22 0.5
15 *14:21 *14:20 0.5
16 *14:20 *14:19 2.171429
17 *14:20 *14:13 0.7901786
18 *14:18 *69:A1 1
19 *14:18 *14:17 0.2825
20 *14:19 *14:18 0.5
21 *14:19 *14:16 1.061607
22 *14:15 *44:A2 1
23 *14:15 *14:14 0.1991667
24 *14:16 *14:15 0.5
25 *14:26 *14:25 10.83304
26 *14:26 *14:10 2.690179

*END

*D_NET *112 3.955107 //LENGTH 51.298 LUMPCC 0 DR

*CONN
*I *36:Y O *L 0 *C 6.064 26.128
*I *17:SETB I *L 0.97065 *C 8.282 32.512
*I *28:RSTB I *L 0.924894 *C 11.080 29.928
*I *19:RSTB I *L 0.924894 *C 15.336 29.928
*I *25:RSTB I *L 0.924894 *C 15.640 26.584
*I *27:RSTB I *L 0.924894 *C 16.400 19.896
*I *22:RSTB I *L 0.924894 *C 21.112 26.584
*I *20:RSTB I *L 0.924894 *C 23.544 29.928
*I *21:RSTB I *L 0.924894 *C 25.520 30.232
*I *24:RSTB I *L 0.924894 *C 19.896 30.232
*I *23:RSTB I *L 0.924894 *C 20.352 23.240
*I *26:RSTB I *L 0.924894 *C 16.096 23.240
*I *18:RSTB I *L 0.924894 *C 6.824 29.928
*N *112:13 *C 16.096 23.254
*N *112:14 *C 20.352 23.254
*N *112:15 *C 20.352 23.544
*N *112:16 *C 19.896 30.245
*N *112:17 *C 19.896 30.827
*N *112:18 *C 19.910 30.840
*N *112:19 *C 22.619 30.840
*N *112:20 *C 22.632 30.827
*N *112:21 *C 25.520 30.219
*N *112:22 *C 25.520 29.942
*N *112:23 *C 25.507 29.928
*N *112:24 *C 23.544 29.746
*N *112:25 *C 23.544 29.916
*N *112:26 *C 23.544 29.928
*N *112:27 *C 22.646 29.928
*N *112:28 *C 22.632 29.928
*N *112:29 *C 22.632 26.598
*N *112:30 *C 22.619 26.584
*N *112:31 *C 21.099 26.584
*N *112:32 *C 20.961 26.584
*N *112:33 *C 20.960 26.584
*N *112:34 *C 20.213 26.584
*N *112:35 *C 20.200 26.571
*N *112:36 *C 20.200 23.544
*N *112:37 *C 20.187 23.544
*N *112:38 *C 16.400 19.910
*N *112:39 *C 16.400 23.530
*N *112:40 *C 16.400 23.544
*N *112:41 *C 16.110 23.544
*N *112:42 *C 16.096 23.544
*N *112:43 *C 15.641 26.584
*N *112:44 *C 16.096 26.584
*N *112:45 *C 16.096 29.306
*N *112:46 *C 16.082 29.320
*N *112:47 *C 15.336 29.915
*N *112:48 *C 15.336 29.334
*N *112:49 *C 15.336 29.320
*N *112:50 *C 11.094 29.320
*N *112:51 *C 11.080 29.334
*N *112:52 *C 11.080 29.915
*N *112:53 *C 11.067 29.928
*N *112:54 *C 8.282 32.512
*N *112:55 *C 8.344 29.942
*N *112:56 *C 8.344 29.928
*N *112:57 *C 6.838 29.928
*N *112:58 *C 6.824 29.915
*N *112:59 *C 6.824 26.598
*N *112:60 *C 6.811 26.584
*N *112:61 *C 6.078 26.584
*N *112:62 *C 6.064 26.571
*N *112:63 *C 6.064 26.142

*CAP
0 *36:Y 0.001
1 *17:SETB 0.001
2 *28:RSTB 0.001
3 *19:RSTB 0.001
4 *25:RSTB 0.001
5 *27:RSTB 0.001
6 *22:RSTB 0.001
7 *20:RSTB 0.001
8 *21:RSTB 0.001
9 *24:RSTB 0.001
10 *23:RSTB 0.001
11 *26:RSTB 0.001
12 *18:RSTB 0.001
13 *112:13 0.01779347
14 *112:14 0.01515539
15 *112:15 0.02563688
16 *112:16 0.02312688
17 *112:17 0.02427041
18 *112:18 0.09897108
19 *112:19 0.09897108
20 *112:20 0.03602935
21 *112:21 0.01307355
22 *112:22 0.01421708
23 *112:23 0.06522453
24 *112:24 0.01041644
25 *112:25 0.00571484
26 *112:26 0.1068933
27 *112:27 0.03988978
28 *112:28 0.1673931
29 *112:29 0.1295848
30 *112:30 0.05371394
31 *112:31 0.005277003
32 *112:32 0.006420535
33 *112:33 0.0828176
34 *112:34 0.02732463
35 *112:35 0.1382845
36 *112:36 0.1458435
37 *112:37 0.1488756
38 *112:38 0.1661896
39 *112:39 0.1673331
40 *112:40 0.1611004
41 *112:41 0.01044572
42 *112:42 0.1837853
43 *112:43 0.0146424
44 *112:44 0.2986756
45 *112:45 0.1144833
46 *112:46 0.02618202
47 *112:47 0.02248262
48 *112:48 0.02362615
49 *112:49 0.1811917
50 *112:50 0.1532307
51 *112:51 0.03935109
52 *112:52 0.03642852
53 *112:53 0.1004647
54 *112:54 0.1066633
55 *112:55 0.0996988
56 *112:56 0.1546051
57 *112:57 0.05236138
58 *112:58 0.1162567
59 *112:59 0.1191793
60 *112:60 0.02835744
61 *112:61 0.02835744
62 *112:62 0.01861926
63 *112:63 0.01747573

*RES
0 *36:Y *112:63 1
1 *112:22 *112:21 0.4946429
2 *112:23 *112:22 0.5
3 *112:21 *21:RSTB 1
4 *112:25 *20:RSTB 1
5 *112:25 *112:24 0.2825
6 *112:26 *112:25 0.5
7 *112:26 *112:23 3.504464
8 *112:28 *112:27 0.5
9 *112:28 *112:20 1.604464
10 *112:27 *112:26 1.604464
11 *112:29 *112:28 5.947322
12 *112:30 *112:29 0.5
13 *112:32 *112:31 0.2455357
14 *112:33 *112:32 0.5
15 *112:33 *112:30 2.961607
16 *112:31 *22:RSTB 1
17 *112:14 *23:RSTB 1
18 *112:35 *112:34 0.5
19 *112:34 *112:33 1.333036
20 *112:20 *112:19 0.5
21 *112:19 *112:18 4.837501
22 *112:17 *112:16 1.0375
23 *112:18 *112:17 0.5
24 *112:16 *24:RSTB 1
25 *112:36 *112:35 5.404465
26 *112:36 *112:15 0.2714286
27 *112:37 *112:36 0.5
28 *112:39 *112:38 6.466072
29 *112:40 *112:39 0.5
30 *112:40 *112:37 6.761608
31 *112:38 *27:RSTB 1
32 *112:42 *112:41 0.5
33 *112:42 *112:13 0.5187501
34 *112:41 *112:40 0.5187501
35 *112:13 *26:RSTB 1
36 *112:43 *25:RSTB 1
37 *112:45 *112:44 4.861607
38 *112:46 *112:45 0.5
39 *112:48 *112:47 1.0375
40 *112:49 *112:48 0.5
41 *112:49 *112:46 1.333036
42 *112:47 *19:RSTB 1
43 *112:52 *28:RSTB 1
44 *112:52 *112:51 1.0375
45 *112:51 *112:50 0.5
46 *112:50 *112:49 7.575893
47 *112:53 *112:52 0.5
48 *112:55 *112:54 4.590179
49 *112:56 *112:55 0.5
50 *112:56 *112:53 4.861607
51 *112:54 *17:SETB 0.5
52 *112:58 *112:57 0.5
53 *112:58 *18:RSTB 1
54 *112:57 *112:56 2.690179
55 *112:59 *112:58 5.923214
56 *112:60 *112:59 0.5
57 *112:62 *112:61 0.5
58 *112:61 *112:60 1.308929
59 *112:63 *112:62 0.7660714
60 *112:44 *112:43 0.8125
61 *112:44 *112:42 5.428572
62 *112:15 *112:14 0.5187501

*END

*D_NET *113 0.05004718 //LENGTH 0.446 LUMPCC 0 DR

*CONN
*I *43:Y O *L 0 *C 23.666 35.866
*I *107:A I *L 0.434891 *C 23.392 35.978
*N *113:2 *C 23.392 35.856

*CAP
0 *43:Y 0.01554018
1 *107:A 0.009483406
2 *113:2 0.02502359

*RES
0 *43:Y *113:2 0.548
1 *113:2 *107:A 0.244

*END

*D_NET *114 0.5692032 //LENGTH 8.126 LUMPCC 0 DR

*CONN
*I *76:Y O *L 0 *C 27.322 29.624
*I *106:A I *L 0.434891 *C 22.784 32.664
*N *114:2 *C 22.784 32.482
*N *114:3 *C 22.784 32.651
*N *114:4 *C 22.797 32.664
*N *114:5 *C 27.027 32.664
*N *114:6 *C 27.040 32.651
*N *114:7 *C 27.040 29.624
*N *114:8 *C 27.191 29.624
*N *114:9 *C 27.205 29.624

*CAP
0 *76:Y 0.01110628
1 *106:A 0.001
2 *114:2 0.01134412
3 *114:3 0.006642516
4 *114:4 0.1423474
5 *114:5 0.1423474
6 *114:6 0.1156164
7 *114:7 0.1241382
8 *114:8 0.005148629
9 *114:9 0.009512155

*RES
0 *76:Y *114:9 0.1958333
1 *114:3 *106:A 1
2 *114:3 *114:2 0.2825
3 *114:4 *114:3 0.5
4 *114:6 *114:5 0.5
5 *114:5 *114:4 7.551786
6 *114:9 *114:8 1
7 *114:8 *114:7 0.2696429
8 *114:7 *114:6 5.404464

*END

*D_NET *115 0.6042578 //LENGTH 6.958 LUMPCC 0 DR

*CONN
*I *75:Y O *L 0 *C 19.288 19.592
*I *22:D I *L 0.557097 *C 19.577 26.026
*N *115:2 *C 19.570 25.976
*N *115:3 *C 19.303 25.976
*N *115:4 *C 19.288 25.963
*N *115:5 *C 19.288 19.605

*CAP
0 *75:Y 0.001
1 *22:D 0.006419621
2 *115:2 0.02928608
3 *115:3 0.02127233
4 *115:4 0.2738041
5 *115:5 0.2724757

*RES
0 *75:Y *115:5 1
1 *115:3 *115:2 0.5330001
2 *115:4 *115:3 1
3 *115:5 *115:4 11.35179
4 *115:2 *22:D 0.0625

*END

*D_NET *116 0.7749146 //LENGTH 10.561 LUMPCC 0 DR

*CONN
*I *74:Y O *L 0 *C 20.610 16.223
*I *105:A I *L 0.424274 *C 16.856 10.776
*N *116:2 *C 16.856 10.594
*N *116:3 *C 16.856 10.764
*N *116:4 *C 16.870 10.776
*N *116:5 *C 19.883 10.776
*N *116:6 *C 19.896 10.790
*N *116:7 *C 19.896 16.538
*N *116:8 *C 19.910 16.552
*N *116:9 *C 20.491 16.552
*N *116:10 *C 20.504 16.538
*N *116:11 *C 20.504 16.209
*N *116:12 *C 20.504 16.208

*CAP
0 *74:Y 0.01118318
1 *105:A 0.001
2 *116:2 0.01577298
3 *116:3 0.01107138
4 *116:4 0.09342872
5 *116:5 0.09342872
6 *116:6 0.214799
7 *116:7 0.214799
8 *116:8 0.02783976
9 *116:9 0.02783976
10 *116:10 0.02383866
11 *116:11 0.02402356
12 *116:12 0.01588977

*RES
0 *74:Y *116:12 0.212
1 *116:3 *105:A 1
2 *116:3 *116:2 0.2825
3 *116:4 *116:3 0.5
4 *116:6 *116:5 0.5
5 *116:5 *116:4 5.380358
6 *116:7 *116:6 10.26607
7 *116:8 *116:7 0.5
8 *116:10 *116:9 0.5
9 *116:9 *116:8 1.0375
10 *116:12 *116:11 1
11 *116:11 *116:10 0.5883929

*END

*D_NET *117 1.887422 //LENGTH 21.238 LUMPCC 0 DR

*CONN
*I *73:SO O *L 0 *C 20.975 34.326
*I *98:A I *L 0.424274 *C 21.720 14.120
*N *117:2 *C 21.720 14.134
*N *117:3 *C 21.720 19.440
*N *117:4 *C 21.264 19.440
*N *117:5 *C 21.264 34.323
*N *117:6 *C 21.249 34.336

*CAP
0 *73:SO 0.02006294
1 *98:A 0.001
2 *117:2 0.3330009
3 *117:3 0.3535096
4 *117:4 0.5902802
5 *117:5 0.5710999
6 *117:6 0.01846881

*RES
0 *73:SO *117:6 0.5480001
1 *117:2 *98:A 1
2 *117:6 *117:5 1
3 *117:5 *117:4 26.57589
4 *117:4 *117:3 0.8142858
5 *117:3 *117:2 9.475893

*END

*D_NET *118 0.241108 //LENGTH 3.302 LUMPCC 0 DR

*CONN
*I *71:SO O *L 0 *C 14.880 24.304
*I *85:A I *L 0.424274 *C 14.880 27.496
*N *118:2 *C 14.880 27.483
*N *118:3 *C 14.880 24.318

*CAP
0 *71:SO 0.001
1 *85:A 0.001
2 *118:2 0.119554
3 *118:3 0.119554

*RES
0 *71:SO *118:3 1
1 *118:2 *85:A 1
2 *118:3 *118:2 5.651786

*END

*D_NET *119 1.118704 //LENGTH 14.885 LUMPCC 0 DR

*CONN
*I *79:Y O *L 0 *C 17.008 20.504
*I *103:A I *L 0.424274 *C 16.856 5.912
*N *119:2 *C 16.857 5.912
*N *119:3 *C 17.008 5.912
*N *119:4 *C 17.008 20.491

*CAP
0 *79:Y 0.001
1 *103:A 0.001
2 *119:2 0.00373489
3 *119:3 0.5612746
4 *119:4 0.5516946

*RES
0 *79:Y *119:4 1
1 *119:2 *103:A 1
2 *119:4 *119:3 26.03304
3 *119:3 *119:2 0.2696429

*END

*D_NET *120 0.9907599 //LENGTH 12.430 LUMPCC 0 DR

*CONN
*I *69:Y O *L 0 *C 13.208 19.592
*I *101:A I *L 0.427737 *C 16.856 12.600
*N *120:2 *C 16.856 12.418
*N *120:3 *C 16.856 12.588
*N *120:4 *C 16.843 12.600
*N *120:5 *C 12.614 12.600
*N *120:6 *C 12.600 12.614
*N *120:7 *C 12.600 16.856
*N *120:8 *C 13.208 16.856
*N *120:9 *C 13.208 19.579

*CAP
0 *69:Y 0.001
1 *101:A 0.001
2 *120:2 0.01534451
3 *120:3 0.0106429
4 *120:4 0.156377
5 *120:5 0.156377
6 *120:6 0.1550391
7 *120:7 0.1829205
8 *120:8 0.1705419
9 *120:9 0.141517

*RES
0 *69:Y *120:9 1
1 *120:3 *101:A 1
2 *120:3 *120:2 0.2825
3 *120:4 *120:3 0.5
4 *120:6 *120:5 0.5
5 *120:5 *120:4 7.551786
6 *120:9 *120:8 4.861608
7 *120:7 *120:6 7.575893
8 *120:8 *120:7 1.085714

*END

*D_NET *121 0.703227 //LENGTH 7.626 LUMPCC 0 DR

*CONN
*I *68:SO O *L 0 *C 13.968 35.856
*I *89:A I *L 0.424274 *C 11.688 30.840
*N *121:2 *C 11.688 30.854
*N *121:3 *C 11.688 32.955
*N *121:4 *C 11.702 32.968
*N *121:5 *C 13.955 32.968
*N *121:6 *C 13.968 32.982
*N *121:7 *C 13.968 35.843

*CAP
0 *68:SO 0.001
1 *89:A 0.001
2 *121:2 0.1157723
3 *121:3 0.1169158
4 *121:4 0.09305573
5 *121:5 0.09305573
6 *121:6 0.1417855
7 *121:7 0.140642

*RES
0 *68:SO *121:7 1
1 *121:2 *89:A 1
2 *121:3 *121:2 3.751786
3 *121:4 *121:3 0.5
4 *121:6 *121:5 0.5
5 *121:5 *121:4 4.023215
6 *121:7 *121:6 5.108929

*END

*D_NET *122 1.884706 //LENGTH 20.354 LUMPCC 0 DR

*CONN
*I *67:Y O *L 0 *C 10.168 30.536
*I *99:A I *L 0.427737 *C 16.845 17.464
*N *122:2 *C 16.716 17.464
*N *122:3 *C 16.704 17.477
*N *122:4 *C 16.704 24.747
*N *122:5 *C 16.691 24.760
*N *122:6 *C 12.462 24.760
*N *122:7 *C 12.448 24.774
*N *122:8 *C 12.448 29.611
*N *122:9 *C 12.434 29.624
*N *122:10 *C 10.181 29.624
*N *122:11 *C 10.168 29.638
*N *122:12 *C 10.168 30.523

*CAP
0 *67:Y 0.001
1 *99:A 0.01373391
2 *122:2 0.01213979
3 *122:3 0.3018616
4 *122:4 0.3016767
5 *122:5 0.1543556
6 *122:6 0.1543556
7 *122:7 0.3241049
8 *122:8 0.3241049
9 *122:9 0.09564922
10 *122:10 0.09564922
11 *122:11 0.05360911
12 *122:12 0.05246557

*RES
0 *67:Y *122:12 1
1 *122:2 *99:A 0.2133334
2 *122:3 *122:2 1
3 *122:4 *122:3 12.98036
4 *122:5 *122:4 0.5
5 *122:7 *122:6 0.5
6 *122:6 *122:5 7.551786
7 *122:8 *122:7 8.637501
8 *122:9 *122:8 0.5
9 *122:11 *122:10 0.5
10 *122:10 *122:9 4.023215
11 *122:12 *122:11 1.580357

*END

*D_NET *123 0.5526654 //LENGTH 7.527 LUMPCC 0 DR

*CONN
*I *64:Y O *L 0 *C 8.800 25.520
*I *80:A I *L 0.424274 *C 5.152 27.496
*N *123:2 *C 5.152 27.314
*N *123:3 *C 5.152 27.484
*N *123:4 *C 5.166 27.496
*N *123:5 *C 9.242 27.496
*N *123:6 *C 9.256 27.483
*N *123:7 *C 9.256 25.382
*N *123:8 *C 9.242 25.368
*N *123:9 *C 8.814 25.368
*N *123:10 *C 8.800 25.368
*N *123:11 *C 8.800 25.508

*CAP
0 *64:Y 0.001
1 *80:A 0.001
2 *123:2 0.01023747
3 *123:3 0.005535875
4 *123:4 0.1318256
5 *123:5 0.1318256
6 *123:6 0.108955
7 *123:7 0.108955
8 *123:8 0.01500917
9 *123:9 0.01500917
10 *123:10 0.01222796
11 *123:11 0.01108443

*RES
0 *64:Y *123:11 1
1 *123:3 *80:A 1
2 *123:3 *123:2 0.2825
3 *123:4 *123:3 0.5
4 *123:6 *123:5 0.5
5 *123:5 *123:4 7.280357
6 *123:7 *123:6 3.751786
7 *123:8 *123:7 0.5
8 *123:10 *123:9 0.5
9 *123:9 *123:8 0.7660714
10 *123:11 *123:10 0.2325

*END

*D_NET *124 0.44486 //LENGTH 5.498 LUMPCC 0 DR

*CONN
*I *63:Y O *L 0 *C 9.712 30.536
*I *96:A I *L 0.424274 *C 8.192 34.184
*N *124:2 *C 8.192 34.171
*N *124:3 *C 8.192 33.894
*N *124:4 *C 8.206 33.880
*N *124:5 *C 9.699 33.880
*N *124:6 *C 9.712 33.867
*N *124:7 *C 9.712 30.550

*CAP
0 *63:Y 0.001
1 *96:A 0.001
2 *124:2 0.01202378
3 *124:3 0.01316732
4 *124:4 0.05946298
5 *124:5 0.05946298
6 *124:6 0.1499432
7 *124:7 0.1487997

*RES
0 *63:Y *124:7 1
1 *124:2 *96:A 1
2 *124:3 *124:2 0.4946429
3 *124:4 *124:3 0.5
4 *124:6 *124:5 0.5
5 *124:5 *124:4 2.666072
6 *124:7 *124:6 5.923214

*END

*D_NET *125 0.4295693 //LENGTH 5.573 LUMPCC 0 DR

*CONN
*I *34:Y O *L 0 *C 8.070 36.158
*I *61:A2 I *L 0.572974 *C 12.144 36.160
*I *61:A5 I *L 0.596276 *C 12.752 36.008
*N *125:3 *C 12.752 35.876
*N *125:4 *C 12.752 35.995
*N *125:5 *C 12.739 36.008
*N *125:6 *C 12.144 36.148
*N *125:7 *C 12.144 36.008
*N *125:8 *C 12.144 36.008
*N *125:9 *C 8.357 36.008
*N *125:10 *C 8.344 36.008
*N *125:11 *C 8.344 36.148
*N *125:12 *C 8.329 36.160

*CAP
0 *34:Y 0.01735067
1 *61:A2 0.001
2 *61:A5 0.001
3 *125:3 0.01173493
4 *125:4 0.005550806
5 *125:5 0.02256236
6 *125:6 0.01149074
7 *125:7 0.01263427
8 *125:8 0.1699766
9 *125:9 0.1441527
10 *125:10 0.00808742
11 *125:11 0.008272327
12 *125:12 0.01575654

*RES
0 *34:Y *125:12 0.5180001
1 *125:4 *61:A5 1
2 *125:4 *125:3 0.1991667
3 *125:5 *125:4 0.5
4 *125:7 *125:6 0.2325
5 *125:8 *125:7 0.5
6 *125:8 *125:5 1.061607
7 *125:6 *61:A2 1
8 *125:10 *125:9 0.5
9 *125:9 *125:8 6.761608
10 *125:12 *125:11 1
11 *125:11 *125:10 0.2325

*END

*D_NET *126 0.8684116 //LENGTH 10.360 LUMPCC 0 DR

*CONN
*I *35:Y O *L 0 *C 19.136 36.160
*I *51:A1 I *L 0.564384 *C 13.208 32.360
*N *126:2 *C 13.208 32.228
*N *126:3 *C 13.208 32.348
*N *126:4 *C 13.222 32.360
*N *126:5 *C 14.715 32.360
*N *126:6 *C 14.728 32.373
*N *126:7 *C 14.728 33.562
*N *126:8 *C 14.742 33.576
*N *126:9 *C 19.123 33.576
*N *126:10 *C 19.136 33.590
*N *126:11 *C 19.136 36.147

*CAP
0 *35:Y 0.001
1 *51:A1 0.001
2 *126:2 0.01272718
3 *126:3 0.006543056
4 *126:4 0.06024532
5 *126:5 0.06172785
6 *126:6 0.06457679
7 *126:7 0.06457679
8 *126:8 0.1899421
9 *126:9 0.1899421
10 *126:10 0.108637
11 *126:11 0.1074935

*RES
0 *35:Y *126:11 1
1 *126:3 *51:A1 1
2 *126:3 *126:2 0.1991667
3 *126:4 *126:3 0.5
4 *126:6 *126:5 0.5
5 *126:5 *126:4 2.666071
6 *126:7 *126:6 2.123214
7 *126:8 *126:7 0.5
8 *126:10 *126:9 0.5
9 *126:9 *126:8 7.823215
10 *126:11 *126:10 4.566072

*END

*D_NET *127 0.6745448 //LENGTH 8.125 LUMPCC 0 DR

*CONN
*I *51:Y O *L 0 *C 13.360 32.512
*I *49:A4 I *L 0.590656 *C 10.320 35.704
*I *49:A6 I *L 0.627742 *C 10.928 36.464
*N *127:3 *C 10.928 36.463
*N *127:4 *C 10.320 35.718
*N *127:5 *C 10.320 36.299
*N *127:6 *C 10.334 36.312
*N *127:7 *C 10.915 36.312
*N *127:8 *C 10.928 36.312
*N *127:9 *C 10.928 34.806
*N *127:10 *C 10.942 34.792
*N *127:11 *C 13.347 34.792
*N *127:12 *C 13.360 34.779
*N *127:13 *C 13.360 32.526

*CAP
0 *51:Y 0.001
1 *49:A4 0.001
2 *49:A6 0.001
3 *127:3 0.005291097
4 *127:4 0.04253518
5 *127:5 0.04367872
6 *127:6 0.0250689
7 *127:7 0.0250689
8 *127:8 0.07318054
9 *127:9 0.06496688
10 *127:10 0.09450209
11 *127:11 0.09450209
12 *127:12 0.101947
13 *127:13 0.1008035

*RES
0 *51:Y *127:13 1
1 *127:3 *49:A6 1
2 *127:9 *127:8 2.690179
3 *127:10 *127:9 0.5
4 *127:12 *127:11 0.5
5 *127:11 *127:10 4.294643
6 *127:13 *127:12 4.023215
7 *127:8 *127:7 0.5
8 *127:8 *127:3 0.2696429
9 *127:7 *127:6 1.0375
10 *127:5 *127:4 1.0375
11 *127:6 *127:5 0.5
12 *127:4 *49:A4 1

*END

*D_NET *128 0.3070855 //LENGTH 3.789 LUMPCC 0 DR

*CONN
*I *50:Y O *L 0 *C 8.648 36.160
*I *49:A1 I *L 0.562405 *C 10.016 35.856
*I *49:A3 I *L 0.540238 *C 10.472 36.616
*N *128:3 *C 10.472 36.602
*N *128:4 *C 10.472 35.718
*N *128:5 *C 10.459 35.704
*N *128:6 *C 10.016 35.843
*N *128:7 *C 10.016 35.704
*N *128:8 *C 10.016 35.704
*N *128:9 *C 8.662 35.704
*N *128:10 *C 8.648 35.718
*N *128:11 *C 8.648 36.147

*CAP
0 *50:Y 0.001
1 *49:A1 0.001
2 *49:A3 0.001
3 *128:3 0.04885539
4 *128:4 0.04999892
5 *128:5 0.01983538
6 *128:6 0.01089071
7 *128:7 0.01203425
8 *128:8 0.07386763
9 *128:9 0.05225322
10 *128:10 0.01874677